this is computer fix
new line.
this is slkashfkas;kjas


old